Version 4
SHEET 1 1504 816
WIRE -528 128 -704 128
WIRE -448 128 -528 128
WIRE -304 128 -368 128
WIRE -208 128 -304 128
WIRE -16 128 -208 128
WIRE 176 128 -16 128
WIRE 192 128 176 128
WIRE 320 128 272 128
WIRE 464 128 320 128
WIRE -16 176 -16 128
WIRE -528 192 -528 128
WIRE -304 192 -304 128
WIRE -208 192 -208 128
WIRE 464 224 464 128
WIRE -304 304 -304 256
WIRE -208 304 -208 256
WIRE -208 304 -304 304
WIRE -528 336 -528 256
WIRE -304 336 -304 304
WIRE 176 352 176 128
WIRE 320 352 320 128
WIRE 464 352 464 288
WIRE 1344 384 1328 384
WIRE 1424 384 1424 320
WIRE -16 416 -16 256
WIRE -16 416 -224 416
WIRE 32 416 -16 416
WIRE 32 432 32 416
WIRE 112 432 32 432
WIRE 576 432 528 432
WIRE 672 432 576 432
WIRE 768 432 672 432
WIRE 896 432 768 432
WIRE 1024 432 896 432
WIRE 1136 432 1024 432
WIRE 1232 432 1136 432
WIRE 1328 432 1328 384
WIRE 1328 432 1232 432
WIRE 576 448 576 432
WIRE 672 464 672 432
WIRE 768 464 768 432
WIRE 896 464 896 432
WIRE 1024 464 1024 432
WIRE 1136 464 1136 432
WIRE 1232 464 1232 432
WIRE 1328 464 1328 432
WIRE 1424 464 1424 384
WIRE -224 480 -224 416
WIRE 112 560 0 560
WIRE 672 560 672 544
WIRE 672 560 528 560
WIRE 768 560 768 528
WIRE 768 560 672 560
WIRE 672 624 672 560
WIRE 0 688 0 560
WIRE 192 688 192 640
WIRE 192 688 0 688
WIRE 448 704 448 640
WIRE 512 704 448 704
WIRE 576 704 576 512
WIRE 576 704 512 704
WIRE 320 720 320 640
WIRE 192 736 192 688
WIRE 512 736 512 704
WIRE 672 752 672 704
FLAG -528 336 0
FLAG -304 336 0
FLAG -224 560 0
FLAG 320 800 0
FLAG 192 800 0
FLAG 512 736 0
FLAG 672 752 0
FLAG 896 528 0
FLAG 1024 528 0
FLAG 1136 528 0
FLAG 1232 528 0
FLAG 1328 528 0
FLAG 1424 528 0
FLAG 1424 320 Vout
IOPIN 1424 320 Out
FLAG -704 128 Vin
IOPIN -704 128 In
SYMBOL Cap -544 192 R0
SYMATTR InstName C1
SYMATTR Value 10µF
SYMBOL ind -464 144 R270
WINDOW 0 32 56 VTop 2
WINDOW 3 5 56 VBottom 2
SYMATTR InstName L1
SYMATTR Value 470n
SYMATTR SpiceLine Ipk=10 Rser=12m Rpar=1.732K Cpar=0 mfg="Bourns, Inc." pn="SRP4020-R47M"
SYMBOL Cap -320 192 R0
SYMATTR InstName C2
SYMATTR Value 10µF
SYMBOL Cap -224 192 R0
SYMATTR InstName C3
SYMATTR Value 10µF
SYMBOL Res -32 160 R0
SYMATTR InstName R1
SYMATTR Value 560k
SYMBOL Res -240 464 R0
SYMATTR InstName R2
SYMATTR Value 100k
SYMBOL LT8336 320 496 R0
SYMATTR InstName U1
SYMBOL ind 176 144 R270
WINDOW 0 32 56 VTop 2
WINDOW 3 5 56 VBottom 2
SYMATTR InstName L2
SYMATTR Value 6.8µH
SYMBOL Cap 448 224 R0
SYMATTR InstName C4
SYMATTR Value 100nF
SYMBOL Res 304 704 R0
SYMATTR InstName R3
SYMATTR Value 47.5K
SYMBOL Cap 176 736 R0
SYMATTR InstName C5
SYMATTR Value 1µF
SYMBOL Cap 560 448 R0
SYMATTR InstName C6
SYMATTR Value 1µF
SYMBOL Res 656 448 R0
SYMATTR InstName R4
SYMATTR Value 34K
SYMBOL Res 656 608 R0
SYMATTR InstName R5
SYMATTR Value 1K
SYMBOL Cap 752 464 R0
SYMATTR InstName C7
SYMATTR Value 4.7pF
SYMBOL Cap 880 464 R0
SYMATTR InstName C8
SYMATTR Value 1µF
SYMBOL Cap 1008 464 R0
SYMATTR InstName C9
SYMATTR Value 10µF
SYMBOL Cap 1120 464 R0
SYMATTR InstName C10
SYMATTR Value 10µF
SYMBOL Cap 1216 464 R0
SYMATTR InstName C11
SYMATTR Value 1µF
SYMBOL Cap 1312 464 R0
SYMATTR InstName C12
SYMATTR Value 100nF
SYMBOL Cap 1408 464 R0
SYMATTR InstName C13
SYMATTR Value 100nF
SYMBOL ind 1328 400 R270
WINDOW 0 32 56 VTop 2
WINDOW 3 5 56 VBottom 2
SYMATTR InstName L3
SYMATTR Value 100nH
SYMATTR SpiceLine Rser=20m
TEXT -464 -40 Left 7 ;Boost Converter
