Version 4
SHEET 1 880 680
WIRE 512 112 -112 112
WIRE 160 208 16 208
WIRE 16 240 16 208
WIRE 512 272 512 112
WIRE 512 272 496 272
WIRE 160 288 160 208
WIRE 368 288 160 288
WIRE 752 304 496 304
WIRE 368 320 288 320
WIRE 592 336 496 336
WIRE 752 352 752 304
WIRE -112 368 -112 112
WIRE 16 368 -112 368
WIRE 592 368 592 336
WIRE 288 448 288 320
WIRE 592 448 288 448
WIRE 288 512 288 448
WIRE 16 528 16 368
WIRE 288 624 288 592
FLAG 16 320 0
FLAG 16 608 0
FLAG 288 624 0
FLAG 752 352 0
SYMBOL TLV9352 432 304 R0
SYMATTR InstName U1
SYMBOL Voltage 16 224 R0
SYMATTR InstName V1
SYMATTR Value PWL(0 0 1m 1 1.1m 0.5 1.2m 2 1.3m 3)
SYMBOL Voltage 16 512 R0
SYMATTR InstName V2
SYMATTR Value 32V
SYMBOL Res 576 352 R0
SYMATTR InstName R1
SYMATTR Value 40.2k
SYMBOL Res 272 496 R0
SYMATTR InstName R2
SYMATTR Value 10k
TEXT 664 616 Left 2 !.tran 10m
